
*** ChampSim Multicore Out-of-Order Simulator ***

Warmup Instructions: 1000000
Simulation Instructions: 10000000
Number of CPUs: 1
LLC sets: 2048
LLC ways: 16
Off-chip DRAM Size: 4096 MB Channels: 1 Width: 64-bit Data Rate: 3200 MT/s

CPU 0 runs /home/mihirs/school/lin/pref/champsim/dpc3_traces/600.perlbench_s-210B.champsimtrace.xz
CPU 0 Bimodal branch predictor

Warmup complete CPU 0 instructions: 1000001 cycles: 401500 (Simulation time: 0 hr 0 min 12 sec) 

Heartbeat CPU 0 instructions: 10000000 cycles: 7519161 heartbeat IPC: 1.32994 cumulative IPC: 1.26446 (Simulation time: 0 hr 1 min 9 sec) 
Finished CPU 0 instructions: 10000000 cycles: 7884298 cumulative IPC: 1.26834 (Simulation time: 0 hr 1 min 14 sec) 

ChampSim completed all CPUs

Region of Interest Statistics

CPU 0 cumulative IPC: 1.26834 instructions: 10000000 cycles: 7884298
L1D TOTAL     ACCESS:    3477688  HIT:    3476393  MISS:       1295
L1D LOAD      ACCESS:    1652903  HIT:    1651712  MISS:       1191
L1D RFO       ACCESS:    1824785  HIT:    1824681  MISS:        104
L1D PREFETCH  ACCESS:          0  HIT:          0  MISS:          0
L1D WRITEBACK ACCESS:          0  HIT:          0  MISS:          0
L1D PREFETCH  REQUESTED:          0  ISSUED:          0  USEFUL:          0  USELESS:          0
L1D AVERAGE MISS LATENCY: 112.639 cycles
L1I TOTAL     ACCESS:    1636786  HIT:    1636335  MISS:        451
L1I LOAD      ACCESS:    1636786  HIT:    1636335  MISS:        451
L1I RFO       ACCESS:          0  HIT:          0  MISS:          0
L1I PREFETCH  ACCESS:          0  HIT:          0  MISS:          0
L1I WRITEBACK ACCESS:          0  HIT:          0  MISS:          0
L1I PREFETCH  REQUESTED:          0  ISSUED:          0  USEFUL:          0  USELESS:          0
L1I AVERAGE MISS LATENCY: 57.7916 cycles
L2C TOTAL     ACCESS:       3428  HIT:       1904  MISS:       1524
L2C LOAD      ACCESS:       1642  HIT:        859  MISS:        783
L2C RFO       ACCESS:        104  HIT:         14  MISS:         90
L2C PREFETCH  ACCESS:       1525  HIT:        874  MISS:        651
L2C WRITEBACK ACCESS:        157  HIT:        157  MISS:          0
L2C PREFETCH  REQUESTED:       1624  ISSUED:       1624  USEFUL:        254  USELESS:          0
L2C AVERAGE MISS LATENCY: 167.522 cycles
1 0
0 1
0 1
2 0
2 1
1 0
1 0
1 0
0 1
0 1
0 1
0 1
0 1
1 0
1 0
0 1
2 3
0 1
0 1
0 1
1 0
0 1
0 1
0 1
0 1
0 1
1 0
0 1
0 1
0 1
1 0
0 2
0 1
1 0
0 1
0 2
1 0
0 1
0 1
0 1
0 1
0 2
0 1
0 1
0 1
11 0
0 1
0 1
0 1
0 1
0 1
0 2
2 0
0 1
0 1
1 0
1 0
0 1
0 1
1 0
0 1
0 1
0 1
1 0
0 1
0 1
0 1
0 1
1 0
0 1
0 1
0 1
1 0
1 0
0 1
0 1
0 1
0 2
0 1
0 1
0 1
1 0
1 0
0 1
0 1
0 1
1 0
0 1
1 0
1 0
1 0
1 0
1 0
0 1
0 2
1 0
0 1
0 1
0 1
0 1
0 1
0 1
0 2
0 12
0 4
4 3
0 4
0 1
1 2
0 1
1 0
0 1
1 0
0 1
1 0
0 1
1 0
0 1
0 1
0 1
1 0
0 1
0 1
0 1
1 0
0 1
1 0
0 1
1 0
1 0
1 0
0 1
0 1
0 1
1 0
0 1
1 0
1 1
0 1
0 2
3 0
0 1
0 1
1 0
0 1
0 1
0 1
1 1
1 0
2 1
2 0
1 0
4 0
1 10
0 1
0 7
0 9
19 2
1 2
1 0
1 1
0 1
0 3
0 3
0 3
0 1
0 1
1 0
0 1
1 0
0 1
1 0
0 1
0 1
0 1
1 0
0 1
0 1
0 1
2 0
1 0
1 0
0 1
0 1
0 1
0 1
0 1
6 6
1 0
0 1
0 1
1 0
1 0
1 0
0 1
0 1
0 1
5 1
0 1
0 1
0 1
0 2
1 0
0 1
4 0
1 0
0 12
0 1
1 0
2 0
0 1
1 0
0 1
0 1
1 0
0 1
0 1
1 0
0 1
0 1
2 0
0 1
1 0
0 1
5 9
1 0
13 0
0 1
0 1
0 1
0 1
1 0
1 0
0 1
0 1
2 0
1 0
0 1
50 296
0 1
1 0
1 0
0 1
0 1
0 1
3 0
0 1
1 0
1 0
0 1
0 1
0 1
0 1
1 0
0 1
0 1
0 1
1 0
0 3
0 1
0 1
0 4
0 1
1 9
0 1
3 16
0 1
0 24
1 0
1 1
0 1
0 1
0 1
0 1
12 21
0 7
0 1
1 0
0 1
0 1
0 1
0 1
1 0
1 1
0 1
0 1
0 1
1 1
0 1
1 0
0 1
0 1
1 1
1 0
2 6
1 0
1 0
1 0
0 1
0 1
0 1
0 1
0 16
0 1
2 0
1 0
0 1
0 1
0 1
0 1
0 1
1 0
0 1
0 1
0 1
0 2
0 1
7 0
0 1
0 1
0 2
0 1
0 1
0 1
1 0
0 1
0 3
0 1
1 0
1 0
0 1
0 1
0 1
0 1
2 0
0 1
0 1
1 0
0 2
0 2
1 0
123 27
1 0
4 4
0 2
0 14
0 1
2 0
0 1
0 1
0 1
0 1
0 1
0 1
0 1
1 0
1 0
0 1
9 0
0 1
0 1
0 1
0 1
1 0
0 1
1 0
1 0
0 1
1 0
2 2
0 1
1 0
1 0
0 1
0 1
0 1
0 1
0 1
0 1
0 1
0 1
0 1
0 1
0 1
1 0
2 0
0 1
0 1
0 1
0 11
0 1
1 0
0 1
0 1
0 13
0 1
4 4
0 2
0 2
1 0
0 1
0 1
9 0
0 1
0 1
0 1
0 1
0 21
0 1
0 1
1 1
1 0
0 1
0 1
0 1
0 1
2 5
0 1
0 1
0 1
0 1
3 0
0 1
0 1
1 0
1 0
0 1
0 1
0 1
1 1
0 1
0 2
1 0
10 1
7 0
0 1
0 1
0 1
0 1
1 0
0 1
0 1
0 1
0 1
6 5
0 1
0 1
0 1
1 3
0 1
0 1
1 0
0 1
0 1
0 1
1 0
0 1
0 13
0 1
0 1
0 1
0 1
0 10
0 1
0 1
0 1
0 1
0 1
0 1
0 1
1 0
3 0
2 0
0 1
0 1
0 1
5 3
0 1
0 1
0 1
0 1
0 1
0 1
9 3
0 1
0 1
0 1
7 6
0 1
1 0
0 1
0 1
1 0
1 0
0 1
0 1
1 0
0 1
0 1
0 6
3 0
1 0
0 1
0 1
1 0
0 1
0 1
1 0
0 1
0 5
0 1
0 2
0 1
8 0
1 0
0 1
1 0
1 0
0 1
0 1
0 1
0 1
0 2
0 1
0 1
0 1
0 1
0 1
0 1
0 1
0 1
0 1
1 0
0 3
0 1
0 1
1 1
0 1
0 1
0 1
0 10
0 1
1 0
0 1
0 1
0 1
0 2
0 1
0 1
0 1
0 1
0 1
0 1
3 0
0 7
0 1
1 2
1 0
0 1
0 1
0 3
0 1
1 0
0 1
0 1
0 1
0 1
1 1
0 1
3 0
1 0
0 1
1 1
0 1
0 1
0 1
0 1
0 1
1 0
3 0
1 0
2 0
0 1
1 0
0 1
1 0
1 0
1 0
1 0
0 1
0 1
0 1
0 1
0 1
0 1
0 1
1 0
1 0
1 0
0 1
0 1
0 1
0 1
1 0
1 0
0 1
1 0
1 0
0 2
0 1
0 1
0 2
0 1
1 0
0 1
1 0
0 1
0 1
1 0
0 1
0 1
0 1
0 1
0 1
0 1
0 1
0 1
3 0
0 1
0 1
0 1
0 1
0 1
2 0
1 0
0 1
1 0
0 1
0 11
0 1
0 1
1 1
0 1
4 0
0 1
1 0
0 1
0 5
0 1
0 1
0 1
0 1
1 0
0 1
100 44
0 1
0 1
0 1
0 1
0 1
0 1
0 1
1 0
20 1
0 1
0 1
0 1
0 1
4 2
0 1
0 1
0 22
0 22
0 2
0 33
0 1
1 9
0 1
0 1
0 1
0 1
0 1
0 1
0 1
0 21
3 0
2 0
0 1
0 1
1 0
0 13
1 0
0 1
0 1
0 11
1 0
0 1
8 0
0 1
0 1
1 0
1 0
0 1
0 1
0 1
1 0
0 2
1 0
27 1
0 1
0 1
0 1
7 6
11 4
0 1
1 0
0 1
0 1
1 0
0 1
0 1
0 1
0 1
0 1
0 1
2 1
0 1
3 0
0 1
1 2
0 1
0 1
6 2
0 38
1 0
0 1
0 2
0 13
0 13
2 0
1 0
0 7
63 0
0 6
0 39
1 0
0 1
2 2
0 1
0 1
1 0
1 0
1 0
0 1
0 1
0 1
0 1
0 1
0 1
0 1
0 1
0 1
1 0
0 1
2 0
0 1
0 1
0 1
0 1
0 1
0 2
2 0
0 1
0 1
1 0
0 1
0 1
0 1
0 1
2 0
0 1
0 1
0 1
1 0
1 0
1 0
1 0
2 0
1 0
0 1
0 1
1 0
0 1
4 9
4 0
0 1
0 1
0 1
0 1
0 2
0 1
1 0
0 1
0 1
0 1
0 1
0 1
LLC TOTAL     ACCESS:       1524  HIT:          0  MISS:       1524
LLC LOAD      ACCESS:        748  HIT:          0  MISS:        748
LLC RFO       ACCESS:         90  HIT:          0  MISS:         90
LLC PREFETCH  ACCESS:        686  HIT:          0  MISS:        686
LLC WRITEBACK ACCESS:          0  HIT:          0  MISS:          0
LLC PREFETCH  REQUESTED:          0  ISSUED:          0  USEFUL:          0  USELESS:          0
LLC AVERAGE MISS LATENCY: 137.902 cycles
Major fault: 0 Minor fault: 379

DRAM Statistics
 CHANNEL 0
 RQ ROW_BUFFER_HIT:        546  ROW_BUFFER_MISS:        978
 DBUS_CONGESTED:        125
 WQ ROW_BUFFER_HIT:          0  ROW_BUFFER_MISS:          0  FULL:          0

 AVG_CONGESTED_CYCLE: 5

CPU 0 Branch Prediction Accuracy: 97.4263% MPKI: 4.2237 Average ROB Occupancy at Mispredict: 73.7662

Branch types
NOT_BRANCH: 8358545 83.5854%
BRANCH_DIRECT_JUMP: 200075 2.00075%
BRANCH_INDIRECT: 64447 0.64447%
BRANCH_CONDITIONAL: 1196079 11.9608%
BRANCH_DIRECT_CALL: 83309 0.83309%
BRANCH_INDIRECT_CALL: 6936 0.06936%
BRANCH_RETURN: 90246 0.90246%
BRANCH_OTHER: 0 0%

